data/code/data/casedata/data_init/aus-data/AU14GenModelData_Ver04/SequenceData.seq
0
0 /End positive sequence generator impedances
0 /End negative sequence generator impedances
0 /End zero sequence generator impedances
0 /End negative sequence shunt load data
0 /End zero sequence shunt load data
  102,   217,'1 ',   0.021000, 0.166750
  102,   217,'2 ',   0.021000, 0.166750
  102,   217,'3 ',   0.019500, 0.155000
  102,   217,'4 ',   0.019500, 0.155000
  102,   309,'1 ',   0.011250, 0.089000
  102,   309,'2 ',   0.011250, 0.089000
  102,   309,'3 ',   0.027250, 0.217000
  205,   206,'1 ',   0.024000, 0.190000
  205,   206,'2 ',   0.024000, 0.190000
  205,   416,'1 ',   0.009250, 0.115000
  205,   416,'2 ',   0.009250, 0.115000
  206,   207,'1 ',   0.011250, 0.089000
  206,   207,'2 ',   0.011250, 0.089000
  206,   212,'1 ',   0.016500, 0.131750
  206,   212,'2 ',   0.016500, 0.131750
  206,   215,'1 ',   0.016500, 0.131750
  206,   215,'2 ',   0.016500, 0.131750
  207,   208,'1 ',   0.004500, 0.035000
  207,   208,'2 ',   0.004500, 0.035000
  207,   209,'1 ',   0.002000, 0.015500
  208,   211,'1 ',   0.007750, 0.062000
  208,   211,'2 ',   0.007750, 0.062000
  208,   211,'3 ',   0.007750, 0.062000
  209,   212,'1 ',   0.011250, 0.089000
  210,   213,'1 ',   0.002500, 0.036250
  210,   213,'2 ',   0.002500, 0.036250
  211,   212,'1 ',   0.003500, 0.027000
  211,   212,'2 ',   0.003500, 0.027000
  211,   214,'1 ',   0.004750, 0.038750
  212,   217,'1 ',   0.017500, 0.139500
  214,   216,'1 ',   0.002500, 0.019250
  214,   217,'1 ',   0.012250, 0.097000
  215,   216,'1 ',   0.012750, 0.100750
  215,   216,'2 ',   0.012750, 0.100750
  215,   217,'1 ',   0.018000, 0.143500
  215,   217,'2 ',   0.018000, 0.143500
  216,   217,'1 ',   0.012750, 0.100750
  303,   304,'1 ',   0.005000, 0.070000
  303,   304,'2 ',   0.005000, 0.070000
  303,   305,'1 ',   0.002750, 0.040000
  303,   305,'2 ',   0.002750, 0.040000
  304,   305,'1 ',   0.000750, 0.010000
  305,   306,'1 ',   0.000500, 0.007500
  305,   307,'1 ',   0.000750, 0.011250
  305,   307,'2 ',   0.000750, 0.011250
  306,   307,'1 ',   0.000250, 0.003000
  307,   308,'1 ',   0.005750, 0.081250
  307,   308,'2 ',   0.005750, 0.081250
  309,   310,'1 ',   0.033750, 0.267375 
  309,   310,'2 ',   0.033750, 0.267375
  309,   310,'3 ',   0.033750, 0.267375
  310,   311,'1 ',   0.000000, 0.000000
  310,   311,'2 ',   0.000000, 0.000000
  312,   313,'1 ',   0.015000, 0.112500
  312,   313,'2 ',   0.015000, 0.112500
  312,   313,'3 ',   0.015000, 0.112500
  313,   314,'1 ',   0.002500, 0.025000
  313,   314,'2 ',   0.002500, 0.025000
  315,   509,'1 ',   0.017500, 0.125000
  315,   509,'2 ',   0.017500, 0.125000
  405,   406,'1 ',   0.009750, 0.118750
  405,   406,'2 ',   0.009750, 0.118750
  405,   408,'1 ',   0.013500, 0.125000
  405,   409,'1 ',   0.045000, 0.305000
  405,   409,'2 ',   0.045000, 0.305000
  405,   409,'3 ',   0.045000, 0.305000
  406,   407,'1 ',   0.001500, 0.019000
  406,   407,'2 ',   0.001500, 0.019000
  407,   408,'1 ',   0.010500, 0.128250
  408,   410,'1 ',   0.041250, 0.480000
  408,   410,'2 ',   0.041250, 0.480000
  408,   410,'3 ',   0.041250, 0.480000
  409,   411,'1 ',   0.025750, 0.177250
  409,   411,'2 ',   0.025750, 0.177250
  410,   411,'1 ',   0.010750, 0.133000
  410,   412,'1 ',   0.010750, 0.133000
  410,   412,'2 ',   0.010750, 0.133000
  410,   412,'3 ',   0.010750, 0.133000
  410,   412,'4 ',   0.010750, 0.133000
  410,   413,'1 ',   0.010000, 0.123500
  410,   413,'2 ',   0.010000, 0.123500
  411,   412,'1 ',   0.003000, 0.038000
  411,   412,'2 ',   0.003000, 0.038000
  414,   415,'1 ',   0.005000, 0.062500
  414,   415,'2 ',   0.005000, 0.062500
  415,   416,'1 ',   0.009250, 0.115000
  415,   416,'2 ',   0.009250, 0.115000
  504,   507,'1 ',   0.057500, 0.375000
  504,   507,'2 ',   0.057500, 0.375000
  504,   508,'1 ',   0.065000, 0.047500
  504,   508,'2 ',   0.065000, 0.047500
  505,   507,'1 ',   0.004000, 0.042500
  505,   507,'2 ',   0.004000, 0.042500
  505,   508,'1 ',   0.006250, 0.070000
  506,   507,'1 ',   0.004000, 0.042500
  506,   507,'2 ',   0.004000, 0.042500
  506,   508,'1 ',   0.007500, 0.070000
  507,   508,'1 ',   0.005000, 0.047500
  507,   509,'1 ',   0.187500, 1.375000
  507,   509,'2 ',   0.187500, 1.375000
  507,   509,'3 ',   0.187500, 1.375000
  507,   509,'4 ',   0.187500, 1.375000
  507,   509,'5 ',   0.187500, 1.375000
0 /End zero sequence non-transformer branch data
0 /End zero sequence mutual impedance data
  101,  102,    0,'1 ', 3
  201,  206,    0,'1 ', 3
  202,  209,    0,'1 ', 3
  203,  208,    0,'1 ', 3
  204,  215,    0,'1 ', 3
  301,  303,    0,'1 ', 3
  302,  312,    0,'1 ', 3
  401,  410,    0,'1 ', 3
  402,  408,    0,'1 ', 3
  403,  407,    0,'1 ', 3
  404,  405,    0,'1 ', 3
  501,  504,    0,'1 ', 3
  502,  505,    0,'1 ', 3
  503,  506,    0,'1 ', 3
  209,  210,    0,'1 ', 4
  209,  210,    0,'2 ', 4
  209,  210,    0,'3 ', 4
  209,  210,    0,'4 ', 4
  213,  214,    0,'1 ', 4
  213,  214,    0,'2 ', 4
  213,  214,    0,'3 ', 4
  213,  214,    0,'4 ', 4
  304,  313,    0,'1 ', 4
  304,  313,    0,'2 ', 4
  305,  311,    0,'1 ', 4
  305,  311,    0,'2 ', 4
  305,  311,    0,'3 ', 4
  305,  314,    0,'1 ', 4
  305,  314,    0,'2 ', 4
  308,  315,    0,'1 ', 4
  308,  315,    0,'2 ', 4
  413,  414,    0,'1 ', 4
  413,  414,    0,'2 ', 4
  413,  414,    0,'3 ', 4
0 /End zero sequence transformer data
0 /End zero sequence switched shunt data
  